108
5.0388 5.0388 5.0388
Ar 0 0 0
Ar 0.8398 0 0.8398
Ar 0.8398 0.8398 0
Ar 0 0.8398 0.8398
Ar 0 0 1.6796
Ar 0.8398 0 2.5194
Ar 0.8398 0.8398 1.6796
Ar 0 0.8398 2.5194
Ar 0 0 3.3592
Ar 0.8398 0 4.199
Ar 0.8398 0.8398 3.3592
Ar 0 0.8398 4.199
Ar 0 1.6796 0
Ar 0.8398 1.6796 0.8398
Ar 0.8398 2.5194 0
Ar 0 2.5194 0.8398
Ar 0 1.6796 1.6796
Ar 0.8398 1.6796 2.5194
Ar 0.8398 2.5194 1.6796
Ar 0 2.5194 2.5194
Ar 0 1.6796 3.3592
Ar 0.8398 1.6796 4.199
Ar 0.8398 2.5194 3.3592
Ar 0 2.5194 4.199
Ar 0 3.3592 0
Ar 0.8398 3.3592 0.8398
Ar 0.8398 4.199 0
Ar 0 4.199 0.8398
Ar 0 3.3592 1.6796
Ar 0.8398 3.3592 2.5194
Ar 0.8398 4.199 1.6796
Ar 0 4.199 2.5194
Ar 0 3.3592 3.3592
Ar 0.8398 3.3592 4.199
Ar 0.8398 4.199 3.3592
Ar 0 4.199 4.199
Ar 1.6796 0 0
Ar 2.5194 0 0.8398
Ar 2.5194 0.8398 0
Ar 1.6796 0.8398 0.8398
Ar 1.6796 0 1.6796
Ar 2.5194 0 2.5194
Ar 2.5194 0.8398 1.6796
Ar 1.6796 0.8398 2.5194
Ar 1.6796 0 3.3592
Ar 2.5194 0 4.199
Ar 2.5194 0.8398 3.3592
Ar 1.6796 0.8398 4.199
Ar 1.6796 1.6796 0
Ar 2.5194 1.6796 0.8398
Ar 2.5194 2.5194 0
Ar 1.6796 2.5194 0.8398
Ar 1.6796 1.6796 1.6796
Ar 2.5194 1.6796 2.5194
Ar 2.5194 2.5194 1.6796
Ar 1.6796 2.5194 2.5194
Ar 1.6796 1.6796 3.3592
Ar 2.5194 1.6796 4.199
Ar 2.5194 2.5194 3.3592
Ar 1.6796 2.5194 4.199
Ar 1.6796 3.3592 0
Ar 2.5194 3.3592 0.8398
Ar 2.5194 4.199 0
Ar 1.6796 4.199 0.8398
Ar 1.6796 3.3592 1.6796
Ar 2.5194 3.3592 2.5194
Ar 2.5194 4.199 1.6796
Ar 1.6796 4.199 2.5194
Ar 1.6796 3.3592 3.3592
Ar 2.5194 3.3592 4.199
Ar 2.5194 4.199 3.3592
Ar 1.6796 4.199 4.199
Ar 3.3592 0 0
Ar 4.199 0 0.8398
Ar 4.199 0.8398 0
Ar 3.3592 0.8398 0.8398
Ar 3.3592 0 1.6796
Ar 4.199 0 2.5194
Ar 4.199 0.8398 1.6796
Ar 3.3592 0.8398 2.5194
Ar 3.3592 0 3.3592
Ar 4.199 0 4.199
Ar 4.199 0.8398 3.3592
Ar 3.3592 0.8398 4.199
Ar 3.3592 1.6796 0
Ar 4.199 1.6796 0.8398
Ar 4.199 2.5194 0
Ar 3.3592 2.5194 0.8398
Ar 3.3592 1.6796 1.6796
Ar 4.199 1.6796 2.5194
Ar 4.199 2.5194 1.6796
Ar 3.3592 2.5194 2.5194
Ar 3.3592 1.6796 3.3592
Ar 4.199 1.6796 4.199
Ar 4.199 2.5194 3.3592
Ar 3.3592 2.5194 4.199
Ar 3.3592 3.3592 0
Ar 4.199 3.3592 0.8398
Ar 4.199 4.199 0
Ar 3.3592 4.199 0.8398
Ar 3.3592 3.3592 1.6796
Ar 4.199 3.3592 2.5194
Ar 4.199 4.199 1.6796
Ar 3.3592 4.199 2.5194
Ar 3.3592 3.3592 3.3592
Ar 4.199 3.3592 4.199
Ar 4.199 4.199 3.3592
Ar 3.3592 4.199 4.199
